$ Elements and Element Properties for region : 2D_Al7075_Bandeja_2mm
PSHELL   1       1       .002    1               1
$ Pset: "2D_Al7075_Bandeja_2mm" will be imported as: "pshell.1"
CQUAD4   1480    1       20000   1388    1423    1001
CQUAD4   1481    1       1388    1389    1422    1423
CQUAD4   1482    1       1389    1390    1421    1422
CQUAD4   1483    1       1390    1041    1300    1421
CQUAD4   1484    1       1001    1423    1426    1002
CQUAD4   1485    1       1423    1422    1424    1426
CQUAD4   1486    1       1422    1421    1425    1424
CQUAD4   1487    1       1421    1300    1299    1425
CQUAD4   1488    1       1424    1425    1427    1426
CQUAD4   1489    1       1425    1299    1298    1427
CQUAD4   1490    1       1426    1427    1003    1002
CQUAD4   1491    1       1427    1298    1004    1003
CQUAD4   1492    1       1041    1385    1428    1042
CQUAD4   1493    1       1385    1386    1430    1428
CQUAD4   1494    1       1042    1428    1429    1043
CQUAD4   1495    1       1428    1430    1431    1429
CQUAD4   1496    1       1043    1429    1432    1044
CQUAD4   1497    1       1429    1431    1434    1432
CQUAD4   1498    1       1431    1430    1433    1434
CQUAD4   1499    1       1430    1386    1387    1433
$ ... 2620 like lines cut
$ Elements and Element Properties for region : 1D_Al7075_Rig_in
PBARL    2       1               I
         .02     .009    .009    .0015   .0015   .0015
$ Pset: "1D_Al7075_Rig_in" will be imported as: "pbarl.2"
CBAR     1000    2       20000   1001    0.      0.      1.
                         0.      0.      -.011   0.      0.      -.011
CBAR     1001    2       1001    1002    0.      0.      1.
                         0.      0.      -.011   0.      0.      -.011
CBAR     1002    2       1002    1003    0.      0.      1.
                         0.      0.      -.011   0.      0.      -.011
CBAR     1003    2       1003    1004    0.      0.      1.
                         0.      0.      -.011   0.      0.      -.011
CBAR     1004    2       1004    1005    0.      0.      1.
                         0.      0.      -.011   0.      0.      -.011
CBAR     1005    2       1005    1006    0.      0.      1.
                         0.      0.      -.011   0.      0.      -.011
CBAR     1006    2       1006    1007    0.      0.      1.
                         0.      0.      -.011   0.      0.      -.011
CBAR     1007    2       1007    1008    0.      0.      1.
                         0.      0.      -.011   0.      0.      -.011
CBAR     1008    2       1008    1009    0.      0.      1.
                         0.      0.      -.011   0.      0.      -.011
CBAR     1009    2       1009    1010    0.      0.      1.
                         0.      0.      -.011   0.      0.      -.011
CBAR     1010    2       1010    1011    0.      0.      1.
                         0.      0.      -.011   0.      0.      -.011
CBAR     1011    2       1011    1012    0.      0.      1.
                         0.      0.      -.011   0.      0.      -.011
CBAR     1012    2       1012    1013    0.      0.      1.
                         0.      0.      -.011   0.      0.      -.011
CBAR     1013    2       1013    1014    0.      0.      1.
                         0.      0.      -.011   0.      0.      -.011
CBAR     1014    2       1014    1015    0.      0.      1.
                         0.      0.      -.011   0.      0.      -.011
CBAR     1015    2       1015    1016    0.      0.      1.
                         0.      0.      -.011   0.      0.      -.011
CBAR     1016    2       1016    1017    0.      0.      1.
                         0.      0.      -.011   0.      0.      -.011
CBAR     1017    2       1017    1018    0.      0.      1.
                         0.      0.      -.011   0.      0.      -.011
CBAR     1018    2       1018    1019    0.      0.      1.
                         0.      0.      -.011   0.      0.      -.011
CBAR     1019    2       1019    1020    0.      0.      1.
                         0.      0.      -.011   0.      0.      -.011
$ ... 2360 like lines cut
$ Elements and Element Properties for region : 1D_Al7075_Rig_out
PBARL    3       1               BAR
         .005    .02
$ Pset: "1D_Al7075_Rig_out" will be imported as: "pbarl.3"
CBAR     1400    3       1073    1361    0.      0.      1.
                         0.      0.      -.011   0.      0.      -.011
CBAR     1401    3       1361    1362    0.      0.      1.
                         0.      0.      -.011   0.      0.      -.011
CBAR     1402    3       1362    1363    0.      0.      1.
                         0.      0.      -.011   0.      0.      -.011
CBAR     1403    3       1363    20001   0.      0.      1.
                         0.      0.      -.011   0.      0.      -.011
CBAR     1404    3       1098    1364    0.      0.      1.
                         0.      0.      -.011   0.      0.      -.011
CBAR     1405    3       1364    1365    0.      0.      1.
                         0.      0.      -.011   0.      0.      -.011
CBAR     1406    3       1365    1366    0.      0.      1.
                         0.      0.      -.011   0.      0.      -.011
CBAR     1407    3       1366    1073    0.      0.      1.
                         0.      0.      -.011   0.      0.      -.011
CBAR     1408    3       1115    1367    0.      0.      1.
                         0.      0.      -.011   0.      0.      -.011
CBAR     1409    3       1367    1368    0.      0.      1.
                         0.      0.      -.011   0.      0.      -.011
CBAR     1410    3       1368    1369    0.      0.      1.
                         0.      0.      -.011   0.      0.      -.011
CBAR     1411    3       1369    1098    0.      0.      1.
                         0.      0.      -.011   0.      0.      -.011
CBAR     1412    3       1124    1370    0.      0.      1.
                         0.      0.      -.011   0.      0.      -.011
CBAR     1413    3       1370    1371    0.      0.      1.
                         0.      0.      -.011   0.      0.      -.011
CBAR     1414    3       1371    1372    0.      0.      1.
                         0.      0.      -.011   0.      0.      -.011
CBAR     1415    3       1372    1115    0.      0.      1.
                         0.      0.      -.011   0.      0.      -.011
CBAR     1416    3       20003   1373    0.      0.      1.
                         0.      0.      -.011   0.      0.      -.011
CBAR     1417    3       1373    1374    0.      0.      1.
                         0.      0.      -.011   0.      0.      -.011
CBAR     1418    3       1374    1375    0.      0.      1.
                         0.      0.      -.011   0.      0.      -.011
CBAR     1419    3       1375    1124    0.      0.      1.
                         0.      0.      -.011   0.      0.      -.011
$ ... 440 like lines cut
$ Elements and Element Properties for region : 0D_Mass_equip_11kg
CONM2    5000    5000            11.
CONM2    6361    5922            11.
CONM2    12721   11843           11.
$ Elements and Element Properties for region : 2D_Al7075_Bandeja_0.5mm
PSHELL*  5               1               5.0000002-4     1
*                        1
$ Pset: "2D_Al7075_Bandeja_0.5mm" will be imported as: "pshell.5"
CQUAD4   9201    5       20012   8231    8266    7844
CQUAD4   9202    5       8231    8232    8265    8266
CQUAD4   9203    5       8232    8233    8264    8265
CQUAD4   9204    5       8233    7884    8143    8264
CQUAD4   9205    5       7844    8266    8269    7845
CQUAD4   9206    5       8266    8265    8267    8269
CQUAD4   9207    5       8265    8264    8268    8267
CQUAD4   9208    5       8264    8143    8142    8268
CQUAD4   9209    5       8267    8268    8270    8269
CQUAD4   9210    5       8268    8142    8141    8270
CQUAD4   9211    5       8269    8270    7846    7845
CQUAD4   9212    5       8270    8141    7847    7846
CQUAD4   9213    5       7884    8228    8271    7885
CQUAD4   9214    5       8228    8229    8273    8271
CQUAD4   9215    5       7885    8271    8272    7886
CQUAD4   9216    5       8271    8273    8274    8272
CQUAD4   9217    5       7886    8272    8275    7887
CQUAD4   9218    5       8272    8274    8277    8275
CQUAD4   9219    5       8274    8273    8276    8277
CQUAD4   9220    5       8273    8229    8230    8276
$ ... 860 like lines cut
$ Elements and Element Properties for region : 1D_Al7075_Inf_Rig_in
PBARL    4       1               T
         .0102   .035    .001    .00204
$ Pset: "1D_Al7075_Inf_Rig_in" will be imported as: "pbarl.4"
CBAR     8721    4       20012   7844    0.      0.      1.
*                                        0.              0.
*        -.0155064       0.              0.              -.0155064
CBAR     8722    4       7844    7845    0.      0.      1.
*                                        0.              0.
*        -.0155064       0.              0.              -.0155064
CBAR     8723    4       7845    7846    0.      0.      1.
*                                        0.              0.
*        -.0155064       0.              0.              -.0155064
CBAR     8724    4       7846    7847    0.      0.      1.
*                                        0.              0.
*        -.0155064       0.              0.              -.0155064
CBAR     8725    4       7847    7848    0.      0.      1.
*                                        0.              0.
*        -.0155064       0.              0.              -.0155064
CBAR     8726    4       7848    7849    0.      0.      1.
*                                        0.              0.
*        -.0155064       0.              0.              -.0155064
CBAR     8727    4       7849    7850    0.      0.      1.
*                                        0.              0.
*        -.0155064       0.              0.              -.0155064
CBAR     8728    4       7850    7851    0.      0.      1.
*                                        0.              0.
*        -.0155064       0.              0.              -.0155064
CBAR     8729    4       7851    7852    0.      0.      1.
*                                        0.              0.
*        -.0155064       0.              0.              -.0155064
CBAR     8730    4       7852    7853    0.      0.      1.
*                                        0.              0.
*        -.0155064       0.              0.              -.0155064
CBAR     8731    4       7853    7854    0.      0.      1.
*                                        0.              0.
*        -.0155064       0.              0.              -.0155064
CBAR     8732    4       7854    7855    0.      0.      1.
*                                        0.              0.
*        -.0155064       0.              0.              -.0155064
CBAR     8733    4       7855    7856    0.      0.      1.
*                                        0.              0.
*        -.0155064       0.              0.              -.0155064
CBAR     8734    4       7856    7857    0.      0.      1.
*                                        0.              0.
*        -.0155064       0.              0.              -.0155064
CBAR     8735    4       7857    7858    0.      0.      1.
*                                        0.              0.
*        -.0155064       0.              0.              -.0155064
CBAR     8736    4       7858    7859    0.      0.      1.
*                                        0.              0.
*        -.0155064       0.              0.              -.0155064
CBAR     8737    4       7859    7860    0.      0.      1.
*                                        0.              0.
*        -.0155064       0.              0.              -.0155064
CBAR     8738    4       7860    7861    0.      0.      1.
*                                        0.              0.
*        -.0155064       0.              0.              -.0155064
CBAR     8739    4       7861    7862    0.      0.      1.
*                                        0.              0.
*        -.0155064       0.              0.              -.0155064
CBAR     8740    4       7862    7863    0.      0.      1.
*                                        0.              0.
*        -.0155064       0.              0.              -.0155064
$ ... 1140 like lines cut
$ Elements and Element Properties for region : 1D_Al7075_Inf_Rig_out
PBARL    6       1               BAR
         .001    .035
$ Pset: "1D_Al7075_Inf_Rig_out" will be imported as: "pbarl.6"
CBAR     9121    6       7916    8204    0.      0.      1.
                         0.      0.      -.01775 0.      0.      -.01775
CBAR     9122    6       8204    8205    0.      0.      1.
                         0.      0.      -.01775 0.      0.      -.01775
CBAR     9123    6       8205    8206    0.      0.      1.
                         0.      0.      -.01775 0.      0.      -.01775
CBAR     9124    6       8206    20013   0.      0.      1.
                         0.      0.      -.01775 0.      0.      -.01775
CBAR     9125    6       7941    8207    0.      0.      1.
                         0.      0.      -.01775 0.      0.      -.01775
CBAR     9126    6       8207    8208    0.      0.      1.
                         0.      0.      -.01775 0.      0.      -.01775
CBAR     9127    6       8208    8209    0.      0.      1.
                         0.      0.      -.01775 0.      0.      -.01775
CBAR     9128    6       8209    7916    0.      0.      1.
                         0.      0.      -.01775 0.      0.      -.01775
CBAR     9129    6       7958    8210    0.      0.      1.
                         0.      0.      -.01775 0.      0.      -.01775
CBAR     9130    6       8210    8211    0.      0.      1.
                         0.      0.      -.01775 0.      0.      -.01775
CBAR     9131    6       8211    8212    0.      0.      1.
                         0.      0.      -.01775 0.      0.      -.01775
CBAR     9132    6       8212    7941    0.      0.      1.
                         0.      0.      -.01775 0.      0.      -.01775
CBAR     9133    6       7967    8213    0.      0.      1.
                         0.      0.      -.01775 0.      0.      -.01775
CBAR     9134    6       8213    8214    0.      0.      1.
                         0.      0.      -.01775 0.      0.      -.01775
CBAR     9135    6       8214    8215    0.      0.      1.
                         0.      0.      -.01775 0.      0.      -.01775
CBAR     9136    6       8215    7958    0.      0.      1.
                         0.      0.      -.01775 0.      0.      -.01775
CBAR     9137    6       20015   8216    0.      0.      1.
                         0.      0.      -.01775 0.      0.      -.01775
CBAR     9138    6       8216    8217    0.      0.      1.
                         0.      0.      -.01775 0.      0.      -.01775
CBAR     9139    6       8217    8218    0.      0.      1.
                         0.      0.      -.01775 0.      0.      -.01775
CBAR     9140    6       8218    7967    0.      0.      1.
                         0.      0.      -.01775 0.      0.      -.01775
$ ... 120 like lines cut
$ Elements and Element Properties for region : 1D_CBUSH_IF
PBUSH    7       K       1.+9    1.+9    1.+9    100.    1.+7    1.+7
$ Pset: "1D_CBUSH_IF" will be imported as: "pbush.7"
CBUSH    1       7       1       7850    0.      1.      0.
CBUSH    2       7       2       7876    0.      1.      0.
CBUSH    3       7       3       7888    0.      1.      0.
CBUSH    4       7       4       7912    0.      1.      0.
CBUSH    5       7       5       7946    0.      1.      0.
CBUSH    6       7       6       7954    0.      1.      0.
CBUSH    7       7       7       7972    0.      1.      0.
CBUSH    8       7       8       7996    0.      1.      0.
CBUSH    9       7       9       8030    0.      1.      0.
CBUSH    10      7       10      8038    0.      1.      0.
CBUSH    11      7       11      8058    0.      1.      0.
CBUSH    12      7       12      8077    0.      1.      0.
$ Elements and Element Properties for region : 1D_Al7075_L_bar_xn_yn
PBEAML   8       1               L
         .03     .03     .0052   .0052
$ Pset: "1D_Al7075_L_bar_xn_yn" will be imported as: "pbeaml.8"
CBEAM    20000   8       20012   20016   1.      0.      0.
CBEAM    20001   8       20016   20017   1.      0.      0.
CBEAM    20002   8       20017   20018   1.      0.      0.
CBEAM    20003   8       20018   20019   1.      0.      0.
CBEAM    20004   8       20019   20000   1.      0.      0.
CBEAM    20005   8       20000   20020   1.      0.      0.
CBEAM    20006   8       20020   20021   1.      0.      0.
CBEAM    20007   8       20021   20022   1.      0.      0.
CBEAM    20008   8       20022   20023   1.      0.      0.
CBEAM    20009   8       20023   20004   1.      0.      0.
CBEAM    20010   8       20004   20024   1.      0.      0.
CBEAM    20011   8       20024   20025   1.      0.      0.
CBEAM    20012   8       20025   20026   1.      0.      0.
CBEAM    20013   8       20026   20027   1.      0.      0.
CBEAM    20014   8       20027   20008   1.      0.      0.
$ Elements and Element Properties for region : 1D_Al7075_L_bar_xn_yp
PBEAML   9       1               L
         .03     .03     .0052   .0052
$ Pset: "1D_Al7075_L_bar_xn_yp" will be imported as: "pbeaml.9"
CBEAM    20015   9       20014   20028   0.      -1.     0.
CBEAM    20016   9       20028   20029   0.      -1.     0.
CBEAM    20017   9       20029   20030   0.      -1.     0.
CBEAM    20018   9       20030   20031   0.      -1.     0.
CBEAM    20019   9       20031   20002   0.      -1.     0.
CBEAM    20020   9       20002   20032   0.      -1.     0.
CBEAM    20021   9       20032   20033   0.      -1.     0.
CBEAM    20022   9       20033   20034   0.      -1.     0.
CBEAM    20023   9       20034   20035   0.      -1.     0.
CBEAM    20024   9       20035   20006   0.      -1.     0.
CBEAM    20025   9       20006   20036   0.      -1.     0.
CBEAM    20026   9       20036   20037   0.      -1.     0.
CBEAM    20027   9       20037   20038   0.      -1.     0.
CBEAM    20028   9       20038   20039   0.      -1.     0.
CBEAM    20029   9       20039   20010   0.      -1.     0.
$ Elements and Element Properties for region : 1D_Al7075_L_bar_xp_yn
PBEAML   10      1               L
         .03     .03     .0052   .0052
$ Pset: "1D_Al7075_L_bar_xp_yn" will be imported as: "pbeaml.10"
CBEAM    20030   10      20015   20040   0.      1.      0.
CBEAM    20031   10      20040   20041   0.      1.      0.
CBEAM    20032   10      20041   20042   0.      1.      0.
CBEAM    20033   10      20042   20043   0.      1.      0.
CBEAM    20034   10      20043   20003   0.      1.      0.
CBEAM    20035   10      20003   20044   0.      1.      0.
CBEAM    20036   10      20044   20045   0.      1.      0.
CBEAM    20037   10      20045   20046   0.      1.      0.
CBEAM    20038   10      20046   20047   0.      1.      0.
CBEAM    20039   10      20047   20007   0.      1.      0.
CBEAM    20040   10      20007   20048   0.      1.      0.
CBEAM    20041   10      20048   20049   0.      1.      0.
CBEAM    20042   10      20049   20050   0.      1.      0.
CBEAM    20043   10      20050   20051   0.      1.      0.
CBEAM    20044   10      20051   20011   0.      1.      0.
$ Elements and Element Properties for region : 1D_Al7075_L_bar_xp_yp
PBEAML   11      1               L
         .03     .03     .0052   .0052
$ Pset: "1D_Al7075_L_bar_xp_yp" will be imported as: "pbeaml.11"
CBEAM    20045   11      20013   20052   -1.     0.      0.
CBEAM    20046   11      20052   20053   -1.     0.      0.
CBEAM    20047   11      20053   20054   -1.     0.      0.
CBEAM    20048   11      20054   20055   -1.     0.      0.
CBEAM    20049   11      20055   20001   -1.     0.      0.
CBEAM    20050   11      20001   20056   -1.     0.      0.
CBEAM    20051   11      20056   20057   -1.     0.      0.
CBEAM    20052   11      20057   20058   -1.     0.      0.
CBEAM    20053   11      20058   20059   -1.     0.      0.
CBEAM    20054   11      20059   20005   -1.     0.      0.
CBEAM    20055   11      20005   20060   -1.     0.      0.
CBEAM    20056   11      20060   20061   -1.     0.      0.
CBEAM    20057   11      20061   20062   -1.     0.      0.
CBEAM    20058   11      20062   20063   -1.     0.      0.
CBEAM    20059   11      20063   20009   -1.     0.      0.
$ Elements and Element Properties for region : 2D_Al7075_Panel_1p5mm
PSHELL   12      1       .0015   1               1
$ Pset: "2D_Al7075_Panel_1p5mm" will be imported as: "pshell.12"
CQUAD4   20060   12      20006   5404    20086   20036
CQUAD4   20061   12      5404    5405    20087   20086
CQUAD4   20062   12      5405    5406    20088   20087
CQUAD4   20063   12      5406    5201    20089   20088
CQUAD4   20064   12      5201    5401    20090   20089
CQUAD4   20065   12      5401    5402    20091   20090
CQUAD4   20066   12      5402    5403    20092   20091
CQUAD4   20067   12      5403    5184    20093   20092
CQUAD4   20068   12      5184    5398    20094   20093
CQUAD4   20069   12      5398    5399    20095   20094
CQUAD4   20070   12      5399    5400    20096   20095
CQUAD4   20071   12      5400    5159    20097   20096
CQUAD4   20072   12      5159    5395    20098   20097
CQUAD4   20073   12      5395    5396    20099   20098
CQUAD4   20074   12      5396    5397    20100   20099
CQUAD4   20075   12      5397    5126    20101   20100
CQUAD4   20076   12      5126    5392    20102   20101
CQUAD4   20077   12      5392    5393    20103   20102
CQUAD4   20078   12      5393    5394    20104   20103
CQUAD4   20079   12      5394    20004   20024   20104
$ ... 1180 like lines cut
$ Referenced Material Records
$ Material Record : Al7075
$ Description of Material : Date: 21-Apr-21           Time: 00:09:58
MAT1*    1               7.0999998+10                    .33
*        2800.           2.2-5           20.
$ Multipoint Constraints of the Entire Model
$ ID conflict : the PATRAN MPC ID was 5001
RBE2*    21260           5000            123456          1012
*        1028            1086            1170           2.200000017183-5
$ ID conflict : the PATRAN MPC ID was 5002
RBE2*    21261           5922            123456          5013
*        5029            5087            5171           2.200000017183-5
$ ID conflict : the PATRAN MPC ID was 10003
RBE2*    21262           11843           123456          7855
*        7871            7929            8013           2.200000017183-5
$ Nodes of the Entire Model
GRID*    1                              -.14624996415604-.14624996415604
*        -.02
GRID*    2                              .146250069818604.146250069818604
*        -.02
GRID*    3                              -.08999995819558-.17999996177186
*        -.02
GRID*    4                              .180000067434418.090000034055817
*        -.02
GRID*    5                              .090000034055817-.17999996177186
*        -.02
GRID*    6                              .180000067434418-.08999995819558
*        -.02
GRID*    7                              -.17999996177186-.08999995819558
*        -.02
GRID*    8                              .090000034055817.180000067434418
*        -.02
GRID*    9                              -.17999996177186.090000034055817
*        -.02
GRID*    10                             -.08999995819558.180000067434418
*        -.02
GRID*    11                             -.14624996415604.146250069818604
*        -.02
GRID*    12                             .146250069818604-.14624996415604
*        -.02
GRID*    1001                            -.2137497544215 -.2137497544215
*       .199999782105368
GRID*    1002                           -.20249975397447-.20249975397447
*       .199999782105368
GRID*    1003                           -.19124975352743-.19124975352743
*       .199999782105368
GRID*    1004                            -.1799997530804 -.1799997530804
*       .199999782105368
GRID*    1005                           -.16874975263336-.16874975263336
*       .199999782105368
GRID*    1006                           -.15749975218633-.15749975218633
*       .199999782105368
GRID*    1007                           -.14624975546459-.14624975546459
*       .199999782105368
GRID*    1008                           -.13499975129226-.13499975129226
*       .199999782105368
$ ... 9278 like lines cut
$ Loads for Load Case : LoadCase
$SPCADD   2       1
$ Displacement Constraints of Load Set : SPC_123456
$SPC1     1       123456  1       THRU    12
