$ MSC.Nastran input file created on June      02, 2021 at 13:45:43 by
$ Patran 2020  (Student Edition)
$ Direct Text Input for Nastran System Cell Section
$ Direct Text Input for File Management Section
$ Direct Text Input for Executive Control
$ Normal Modes Analysis, Database
SOL 103
CEND
$ Direct Text Input for Global Case Control Data
TITLE = MSC.Nastran job created on 01-Jun-21 at 19:56:36
ECHO = NONE
$ Using Nastran default values for RESVEC
SUBCASE 1
$ Subcase name : SC1:FREQS
   SUBTITLE=SC1:FREQS
   METHOD = 1
   SPC = 2
   VECTOR(SORT1,REAL)=ALL
   SPCFORCES(SORT1,REAL)=ALL
BEGIN BULK
$ Direct Text Input for Bulk Data
PARAM    POST    0
PARAM   PRTMAXIM YES
EIGRL    1                       10      0
$ Elements and Element Properties for region : 2D_Al7075_Bandeja_0.5mm
PSHELL*  5               1               5.0000002-4     1
*                        1
$ Pset: "2D_Al7075_Bandeja_0.5mm" will be imported as: "pshell.5"
CQUAD4   1480    5       1000    1388    1423    1001
CQUAD4   1481    5       1388    1389    1422    1423
CQUAD4   1482    5       1389    1390    1421    1422
CQUAD4   1483    5       1390    1041    1300    1421
CQUAD4   1484    5       1001    1423    1426    1002
CQUAD4   1485    5       1423    1422    1424    1426
CQUAD4   1486    5       1422    1421    1425    1424
CQUAD4   1487    5       1421    1300    1299    1425
CQUAD4   1488    5       1424    1425    1427    1426
CQUAD4   1489    5       1425    1299    1298    1427
CQUAD4   1490    5       1426    1427    1003    1002
CQUAD4   1491    5       1427    1298    1004    1003
CQUAD4   1492    5       1041    1385    1428    1042
CQUAD4   1493    5       1385    1386    1430    1428
CQUAD4   1494    5       1042    1428    1429    1043
CQUAD4   1495    5       1428    1430    1431    1429
CQUAD4   1496    5       1043    1429    1432    1044
CQUAD4   1497    5       1429    1431    1434    1432
CQUAD4   1498    5       1431    1430    1433    1434
CQUAD4   1499    5       1430    1386    1387    1433
$ ... 860 like lines cut
$ Elements and Element Properties for region : 1D_Al7075_Inf_Rig_in
PBARL    1       1               T
         .0102   .035    .001    .00204
$ Pset: "1D_Al7075_Inf_Rig_in" will be imported as: "pbarl.1"
CBAR     1000    1       1000    1001    0.      0.      1.
*                                        0.              0.
*        -.0155064       0.              0.              -.0155064
CBAR     1001    1       1001    1002    0.      0.      1.
*                                        0.              0.
*        -.0155064       0.              0.              -.0155064
CBAR     1002    1       1002    1003    0.      0.      1.
*                                        0.              0.
*        -.0155064       0.              0.              -.0155064
CBAR     1003    1       1003    1004    0.      0.      1.
*                                        0.              0.
*        -.0155064       0.              0.              -.0155064
CBAR     1004    1       1004    1005    0.      0.      1.
*                                        0.              0.
*        -.0155064       0.              0.              -.0155064
CBAR     1005    1       1005    1006    0.      0.      1.
*                                        0.              0.
*        -.0155064       0.              0.              -.0155064
CBAR     1006    1       1006    1007    0.      0.      1.
*                                        0.              0.
*        -.0155064       0.              0.              -.0155064
CBAR     1007    1       1007    1008    0.      0.      1.
*                                        0.              0.
*        -.0155064       0.              0.              -.0155064
CBAR     1008    1       1008    1009    0.      0.      1.
*                                        0.              0.
*        -.0155064       0.              0.              -.0155064
CBAR     1009    1       1009    1010    0.      0.      1.
*                                        0.              0.
*        -.0155064       0.              0.              -.0155064
CBAR     1010    1       1010    1011    0.      0.      1.
*                                        0.              0.
*        -.0155064       0.              0.              -.0155064
CBAR     1011    1       1011    1012    0.      0.      1.
*                                        0.              0.
*        -.0155064       0.              0.              -.0155064
CBAR     1012    1       1012    1013    0.      0.      1.
*                                        0.              0.
*        -.0155064       0.              0.              -.0155064
CBAR     1013    1       1013    1014    0.      0.      1.
*                                        0.              0.
*        -.0155064       0.              0.              -.0155064
CBAR     1014    1       1014    1015    0.      0.      1.
*                                        0.              0.
*        -.0155064       0.              0.              -.0155064
CBAR     1015    1       1015    1016    0.      0.      1.
*                                        0.              0.
*        -.0155064       0.              0.              -.0155064
CBAR     1016    1       1016    1017    0.      0.      1.
*                                        0.              0.
*        -.0155064       0.              0.              -.0155064
CBAR     1017    1       1017    1018    0.      0.      1.
*                                        0.              0.
*        -.0155064       0.              0.              -.0155064
CBAR     1018    1       1018    1019    0.      0.      1.
*                                        0.              0.
*        -.0155064       0.              0.              -.0155064
CBAR     1019    1       1019    1020    0.      0.      1.
*                                        0.              0.
*        -.0155064       0.              0.              -.0155064
$ ... 1140 like lines cut
$ Elements and Element Properties for region : 1D_Al7075_Inf_Rig_out
PBARL    2       1               BAR
         .001    .035
$ Pset: "1D_Al7075_Inf_Rig_out" will be imported as: "pbarl.2"
CBAR     1400    2       1073    1361    0.      0.      1.
                         0.      0.      -.01775 0.      0.      -.01775
CBAR     1401    2       1361    1362    0.      0.      1.
                         0.      0.      -.01775 0.      0.      -.01775
CBAR     1402    2       1362    1363    0.      0.      1.
                         0.      0.      -.01775 0.      0.      -.01775
CBAR     1403    2       1363    1040    0.      0.      1.
                         0.      0.      -.01775 0.      0.      -.01775
CBAR     1404    2       1098    1364    0.      0.      1.
                         0.      0.      -.01775 0.      0.      -.01775
CBAR     1405    2       1364    1365    0.      0.      1.
                         0.      0.      -.01775 0.      0.      -.01775
CBAR     1406    2       1365    1366    0.      0.      1.
                         0.      0.      -.01775 0.      0.      -.01775
CBAR     1407    2       1366    1073    0.      0.      1.
                         0.      0.      -.01775 0.      0.      -.01775
CBAR     1408    2       1115    1367    0.      0.      1.
                         0.      0.      -.01775 0.      0.      -.01775
CBAR     1409    2       1367    1368    0.      0.      1.
                         0.      0.      -.01775 0.      0.      -.01775
CBAR     1410    2       1368    1369    0.      0.      1.
                         0.      0.      -.01775 0.      0.      -.01775
CBAR     1411    2       1369    1098    0.      0.      1.
                         0.      0.      -.01775 0.      0.      -.01775
CBAR     1412    2       1124    1370    0.      0.      1.
                         0.      0.      -.01775 0.      0.      -.01775
CBAR     1413    2       1370    1371    0.      0.      1.
                         0.      0.      -.01775 0.      0.      -.01775
CBAR     1414    2       1371    1372    0.      0.      1.
                         0.      0.      -.01775 0.      0.      -.01775
CBAR     1415    2       1372    1115    0.      0.      1.
                         0.      0.      -.01775 0.      0.      -.01775
CBAR     1416    2       1240    1373    0.      0.      1.
                         0.      0.      -.01775 0.      0.      -.01775
CBAR     1417    2       1373    1374    0.      0.      1.
                         0.      0.      -.01775 0.      0.      -.01775
CBAR     1418    2       1374    1375    0.      0.      1.
                         0.      0.      -.01775 0.      0.      -.01775
CBAR     1419    2       1375    1124    0.      0.      1.
                         0.      0.      -.01775 0.      0.      -.01775
$ ... 120 like lines cut
$ Elements and Element Properties for region : 0D_Mass_equip_11kg
CONM2    5000    5000            11.
$ Elements and Element Properties for region : 1D_CBUSH_IF
PBUSH    3       K       1.+9    1.+9    1.+9    100.    1.+7    1.+7
$ Pset: "1D_CBUSH_IF" will be imported as: "pbush.3"
CBUSH    1       3       1       1007    0.      1.      0.
CBUSH    2       3       2       1033    0.      1.      0.
CBUSH    3       3       3       1045    0.      1.      0.
CBUSH    4       3       4       1069    0.      1.      0.
CBUSH    5       3       5       1103    0.      1.      0.
CBUSH    6       3       6       1111    0.      1.      0.
CBUSH    7       3       7       1129    0.      1.      0.
CBUSH    8       3       8       1153    0.      1.      0.
CBUSH    9       3       9       1187    0.      1.      0.
CBUSH    10      3       10      1195    0.      1.      0.
CBUSH    11      3       11      1215    0.      1.      0.
CBUSH    12      3       12      1234    0.      1.      0.
$ Referenced Material Records
$ Material Record : Al7075
$ Description of Material : Date: 21-Apr-21           Time: 00:09:58
MAT1*    1               7.0999998+10                    .33
*        2800.           2.2-5           20.
$ Multipoint Constraints of the Entire Model
RBE2*    5001            5000            123456          1012
*        1028            1086            1170           2.200000017183-5
$ Nodes of the Entire Model
GRID*    1                              .078749999403954.078749999403954
*        -.02
GRID*    2                              .371250033378601.371250033378601
*        -.02
GRID*    3                              .135000005364418.045000001788139
*        -.02
GRID*    4                              .405000030994415.314999997615814
*        -.02
GRID*    5                              .314999997615814.045000001788139
*        -.02
GRID*    6                              .405000030994415.135000005364418
*        -.02
GRID*    7                              .045000001788139.135000005364418
*        -.02
GRID*    8                              .314999997615814.405000030994415
*        -.02
GRID*    9                              .045000001788139.314999997615814
*        -.02
GRID*    10                             .135000005364418.405000030994415
*        -.02
GRID*    11                             .078749999403954.371250033378601
*        -.02
GRID*    12                             .371250033378601.078749999403954
*        -.02
GRID     1000            0.      0.      0.
GRID*    1001                           .011250000447035.011250000447035
*        0.
GRID*    1002                            .02250000089407 .02250000089407
*        0.
GRID*    1003                           .033750001341105.033750001341105
*        0.
GRID*    1004                           .045000001788139.045000001788139
*        0.
GRID*    1005                           .056250002235174.056250002235174
*        0.
GRID*    1006                           .067500002682209.067500002682209
*        0.
GRID*    1007                           .078749999403954.078749999403954
*        0.
GRID*    1008                           .090000003576279.090000003576279
*        0.
GRID*    1009                           .101250007748604.101250007748604
*        0.
GRID*    1010                           .112500004470348.112500004470348
*        0.
GRID*    1011                           .123750001192093.123750001192093
*        0.
GRID*    1012                           .135000005364418.135000005364418
*        0.
GRID*    1013                           .146250009536743.146250009536743
*        0.
GRID*    1014                           .157499998807907.157499998807907
*        0.
GRID*    1015                           .168750002980232.168750002980232
*        0.
GRID*    1016                           .180000007152557.180000007152557
*        0.
GRID*    1017                           .191250011324883.191250011324883
*        0.
GRID*    1018                           .202500015497208.202500015497208
*        0.
GRID*    1019                           .213750004768372.213750004768372
*        0.
GRID*    1020                           .225000008940697.225000008940697
*        0.
$ ... 8 like lines cut
GRID     1025            .28125  .28125  0.
GRID*    1026                           .292500019073486.292500019073486
*        0.
GRID*    1027                            .30375000834465 .30375000834465
*        0.
GRID*    1028                           .314999997615814.314999997615814
*        0.
GRID*    1029                           .326250016689301.326250016689301
*        0.
GRID*    1030                           .337500005960464.337500005960464
*        0.
GRID*    1031                           .348749995231628.348749995231628
*        0.
GRID*    1032                           .360000014305115.360000014305115
*        0.
GRID*    1033                           .371250033378601.371250033378601
*        0.
GRID*    1034                           .382500022649765.382500022649765
*        0.
GRID*    1035                           .393750011920929.393750011920929
*        0.
GRID*    1036                           .405000030994415.405000030994415
*        0.
GRID*    1037                           .416250020265579.416250020265579
*        0.
GRID*    1038                           .427500009536743.427500009536743
*        0.
GRID*    1039                           .438750028610229.438750028610229
*        0.
GRID*    1040                           .450000017881393.450000017881393
*        0.
GRID*    1041                           .090000003576279 0.
*        0.
GRID*    1042                           .101250007748604.011250000447035
*        0.
GRID*    1043                           .112500004470348 .02250000089407
*        0.
GRID*    1044                           .123750001192093.033750001341105
*        0.
GRID*    1045                           .135000005364418.045000001788139
*        0.
$ ... 1752 like lines cut
$ Loads for Load Case : SC1:FREQS
SPCADD   2       1
$ Displacement Constraints of Load Set : SPC_123456
SPC1     1       123456  1       THRU    12
$ Referenced Coordinate Frames
ENDDATA 66de3cdf
